/*--------------------------------*- C++ -*----------------------------------*\
  =========                 |
  \\      /  F ield         | OpenFOAM: The Open Source CFD Toolbox
   \\    /   O peration     | Website:  https://openfoam.org
    \\  /    A nd           | Version:  6
     \\/     M anipulation  |
\*---------------------------------------------------------------------------*/
FoamFile
{
    version     2.0;
    format      ascii;
    class       dictionary;
    location    "system";
    object      controlDict;
}
// * * * * * * * * * * * * * * * * * * * * * * * * * * * * * * * * * * * * * //

application     BGKionFoam;

startFrom       startTime;

startTime       0;

stopAt          endTime;

endTime         50e-5;

deltaT          1.0e-8;

writeInterval   5.0e-6;

writeControl    adjustableRunTime;



purgeWrite      0;

writeFormat     ascii;

writePrecision  6;

writeCompression off;

timeFormat      general;

timePrecision   6;

runTimeModifiable true;

SolverPerformance 1;

lduMatrix::debug 1;


//************ RUNTIME POST-PROCESSING FUNCTIONS ***************************//

functions
{
	#includeFunc Myresiduals
}



// ************************************************************************* //
