/*--------------------------------*- C++ -*----------------------------------*\
  =========                 |
  \\      /  F ield         | OpenFOAM: The Open Source CFD Toolbox
   \\    /   O peration     | Website:  https://openfoam.org
    \\  /    A nd           | Version:  6
     \\/     M anipulation  |
\*---------------------------------------------------------------------------*/
FoamFile
{
    version     2.0;
    format      ascii;
    class       dictionary;
    location    "system";
    object      fvSchemes;
}
// * * * * * * * * * * * * * * * * * * * * * * * * * * * * * * * * * * * * * //

ddtSchemes
{
    default         Euler;
}

gradSchemes
{
    default         Gauss linear;
}

divSchemes
{
    default         none;
    div(phi,U)      bounded Gauss linearUpwind grad(U);
    div(phi,k)      bounded Gauss limitedLinear 1;
    div(phi,epsilon) bounded Gauss limitedLinear 1;
    div(phi,omega)  bounded Gauss limitedLinear 1;
    div(phi,v2)     bounded Gauss limitedLinear 1;
    div((nuEff*dev2(T(grad(U))))) Gauss linear;
    div(nonlinearStress) Gauss linear;

    div(fluxIon,rhoIon) Gauss SuperBee;;
    div(fluxIon,UIon) Gauss SuperBee;
    div(fluxIon,pIon) Gauss SuperBee;
    div(UIon)    Gauss linear;
    div(interpolate(UIon),pIon) bounded Gauss limitedLinear 1;
}

laplacianSchemes
{
    default         Gauss linear corrected;
}

interpolationSchemes
{
    default         linear;
}

snGradSchemes
{
    default         corrected;
}

wallDist
{
    method meshWave;
}


// ************************************************************************* //
