/*--------------------------------*- C++ -*----------------------------------*\
  =========                 |
  \\      /  F ield         | OpenFOAM: The Open Source CFD Toolbox
   \\    /   O peration     | Website:  https://openfoam.org
    \\  /    A nd           | Version:  6
     \\/     M anipulation  |
\*---------------------------------------------------------------------------*/
FoamFile
{
    version     2.0;
    format      ascii;
    class       dictionary;
    location    "system";
    object      fvSolution;
}
// * * * * * * * * * * * * * * * * * * * * * * * * * * * * * * * * * * * * * //

solvers
{
    Vrf
    {
        solver          GAMG;
        tolerance       1e-06;
        relTol          0.1;
        smoother        GaussSeidel;
    }




    Vstatic
    {
        solver          GAMG;
        tolerance       1e-06;
        relTol          0.1;
        smoother        GaussSeidel;
    }

    Vdynamic
    {
        solver          GAMG;
        tolerance       1e-06;
        relTol          0.1;
        smoother        GaussSeidel;
    }

   UIon
    {
        solver          GAMG;
	smoother        GaussSeidel;
        tolerance       1e-06;
        relTol          0.1;
    }

   rhoIon
    {
        solver          GAMG;
        tolerance       1e-06;
        relTol          0.1;
        smoother        GaussSeidel;
    }

   pIon
    {
        solver          smoothSolver;
        tolerance       1e-06;
        relTol          0.1;
        smoother        GaussSeidel;
    }


}




SIMPLE
{
    nNonOrthogonalCorrectors 0;
}


//SIMPLE
//{
//    nNonOrthogonalCorrectors 0;
//    consistent      yes;
//
//    residualControl
//    {
//        p               1e-2;
//        U               1e-3;
//       "(k|epsilon|omega|f|v2)" 1e-3;
//    }
//}

//relaxationFactors
//{
//    equations
//    {
//        U               0.9; // 0.9 is more stable but 0.95 more convergent
//        ".*"            0.9; // 0.9 is more stable but 0.95 more convergent
//    }
//}


// ************************************************************************* //
