/*--------------------------------*- C++ -*----------------------------------*\
| =========                 |                                                 |
| \\      /  F ield         | OpenFOAM: The Open Source CFD Toolbox           |
|  \\    /   O peration     | Version:  v2006                                 |
|   \\  /    A nd           | Website:  www.openfoam.com                      |
|    \\/     M anipulation  |                                                 |
\*---------------------------------------------------------------------------*/
FoamFile
{
    version     2.0;
    format      ascii;
    class       volScalarField;
    location    "constant";
    object      mu;
}
// * * * * * * * * * * * * * * * * * * * * * * * * * * * * * * * * * * * * * //

dimensions      [1 -1 -1 0 0 0 0];


internalField   uniform 1.8375e-05;

boundaryField
{
    ehv
    {
        type            calculated;
        value           uniform 1.8375e-05;
    }
    elv
    {
        type            calculated;
        value           uniform 1.8375e-05;
    }
    freeField
    {
        type            calculated;
        value           uniform 1.8375e-05;
    }
}


// ************************************************************************* //
