/*--------------------------------*- C++ -*----------------------------------*\
| =========                 |                                                 |
| \\      /  F ield         | OpenFOAM: The Open Source CFD Toolbox           |
|  \\    /   O peration     | Version:  4.x                                   |
|   \\  /    A nd           | Web:      www.OpenFOAM.org                      |
|    \\/     M anipulation  |                                                 |
\*---------------------------------------------------------------------------*/
FoamFile
{
    version     2.0;
    format      ascii;
    class       volVectorField;
    object      E;
}
// ************************************************************************* //

dimensions      [1 1 -3 0 0 -1 0]; // [kg * m /( s^3 A)]

internalField       uniform (0 0 0);

boundaryField
{
    ehv
    {
        type                fixedValue;
        value               uniform (0 0 0);
    }

    elv
    {
        type                fixedValue;
        value               uniform (0 0 0);
    }

     freeField
    {
        type                fixedValue;
        value               uniform (0 0 0);
    }

}

// ************************************************************************* //
